Circuit: * C:\Users\dagoodma\Desktop\ce118\lab2\circuit\infrared_sensor.asc

WARNING: Node NC_01 is floating.

WARNING: Less than two connections to node NC_01.  This node is used by C1.
WARNING: Less than two connections to node N004.  This node is used by V2.
Early termination of direct N-R iteration.
Direct Newton iteration failed to find .op point.  (Use ".option noopiter" to skip.)
Starting Gmin stepping
Gmin = 10
Gmin = 1.07374
Gmin = 0.115292
Gmin = 0.0123794
Gmin = 0.00132923
Gmin = 0.000142725
Gmin = 1.5325e-005
Gmin = 1.6455e-006
Gmin = 1.76685e-007
Gmin = 1.89714e-008
Gmin = 2.03704e-009
Gmin = 2.18725e-010
Gmin = 2.34854e-011
Gmin = 2.52173e-012
Gmin = 2.70769e-013
Gmin = 0
Gmin stepping succeeded in finding the operating point.

.step r=1000
.step r=2000
.step r=3000
.step r=4000
.step r=5000
.step r=6000
.step r=7000
.step r=8000
.step r=9000
.step r=10000
.step r=11000
.step r=12000
.step r=13000
.step r=14000
.step r=15000
.step r=16000
.step r=17000
.step r=18000
.step r=19000
.step r=20000
.step r=21000
.step r=22000
.step r=23000
.step r=24000
.step r=25000
.step r=26000
.step r=27000
.step r=28000
.step r=29000
.step r=30000
.step r=31000
.step r=32000
.step r=33000
.step r=34000
.step r=35000
.step r=36000
.step r=37000
.step r=38000
.step r=39000
.step r=40000
.step r=41000
.step r=42000
.step r=43000
.step r=44000
.step r=45000
.step r=46000
.step r=47000
.step r=48000
.step r=49000
.step r=50000
.step r=51000
.step r=52000
.step r=53000
.step r=54000
.step r=55000
.step r=56000
.step r=57000
.step r=58000
.step r=59000
.step r=60000
.step r=61000
.step r=62000
.step r=63000
.step r=64000
.step r=65000
.step r=66000
.step r=67000
.step r=68000
.step r=69000
.step r=70000
.step r=71000
.step r=72000
.step r=73000
.step r=74000
.step r=75000
.step r=76000
.step r=77000
.step r=78000
.step r=79000
.step r=80000
.step r=81000
.step r=82000
.step r=83000
.step r=84000
.step r=85000
.step r=86000
.step r=87000
.step r=88000
.step r=89000
.step r=90000
.step r=91000
.step r=92000
.step r=93000
.step r=94000
.step r=95000
.step r=96000
.step r=97000
.step r=98000
.step r=99000
.step r=100000
.step r=101000
.step r=102000
.step r=103000
.step r=104000
.step r=105000
.step r=106000
.step r=107000
.step r=108000
.step r=109000
.step r=110000
.step r=111000
.step r=112000
.step r=113000
.step r=114000
.step r=115000
.step r=116000
.step r=117000
.step r=118000
.step r=119000
.step r=120000
.step r=121000
.step r=122000
.step r=123000
.step r=124000
.step r=125000
.step r=126000
.step r=127000
.step r=128000
.step r=129000
.step r=130000
.step r=131000
.step r=132000
.step r=133000
.step r=134000
.step r=135000
.step r=136000
.step r=137000
.step r=138000
.step r=139000
.step r=140000
.step r=141000
.step r=142000
.step r=143000
.step r=144000
.step r=145000
.step r=146000
.step r=147000
.step r=148000
.step r=149000
.step r=150000
.step r=151000
.step r=152000
.step r=153000
.step r=154000
.step r=155000
.step r=156000
.step r=157000
.step r=158000
.step r=159000
.step r=160000
.step r=161000
.step r=162000
.step r=163000
.step r=164000
.step r=165000
.step r=166000
.step r=167000
.step r=168000
.step r=169000
.step r=170000
.step r=171000
.step r=172000
.step r=173000
.step r=174000
.step r=175000
.step r=176000
.step r=177000
.step r=178000
.step r=179000
.step r=180000
.step r=181000
.step r=182000
.step r=183000
.step r=184000
.step r=185000
.step r=186000
.step r=187000
.step r=188000
.step r=189000
.step r=190000
.step r=191000
.step r=192000
.step r=193000
.step r=194000
.step r=195000
.step r=196000
.step r=197000
.step r=198000
.step r=199000
.step r=200000
.step r=201000
.step r=202000
.step r=203000
.step r=204000
.step r=205000
.step r=206000
.step r=207000
.step r=208000
.step r=209000
.step r=210000
.step r=211000
.step r=212000
.step r=213000
.step r=214000
.step r=215000
.step r=216000
.step r=217000
.step r=218000
.step r=219000
.step r=220000
.step r=221000
.step r=222000
.step r=223000
.step r=224000
.step r=225000
.step r=226000
.step r=227000
.step r=228000
.step r=229000
.step r=230000
.step r=231000
.step r=232000
.step r=233000
.step r=234000
.step r=235000
.step r=236000
.step r=237000
.step r=238000
.step r=239000
.step r=240000
.step r=241000
.step r=242000
.step r=243000
.step r=244000
.step r=245000
.step r=246000
.step r=247000
.step r=248000
.step r=249000
.step r=250000
.step r=251000
.step r=252000
.step r=253000
.step r=254000
.step r=255000
.step r=256000
.step r=257000
.step r=258000
.step r=259000
.step r=260000
.step r=261000
.step r=262000
.step r=263000
.step r=264000
.step r=265000
.step r=266000
.step r=267000
.step r=268000
.step r=269000
.step r=270000
.step r=271000
.step r=272000
.step r=273000
.step r=274000
.step r=275000
.step r=276000
.step r=277000
.step r=278000
.step r=279000
.step r=280000
.step r=281000
.step r=282000
.step r=283000
.step r=284000
.step r=285000
.step r=286000
.step r=287000
.step r=288000
.step r=289000
.step r=290000
.step r=291000
.step r=292000
.step r=293000
.step r=294000
.step r=295000
.step r=296000
.step r=297000
.step r=298000
.step r=299000
.step r=300000
.step r=301000
.step r=302000
.step r=303000
.step r=304000
.step r=305000
.step r=306000
.step r=307000
.step r=308000
.step r=309000
.step r=310000
.step r=311000
.step r=312000
.step r=313000
.step r=314000
.step r=315000
.step r=316000
.step r=317000
.step r=318000
.step r=319000
.step r=320000
.step r=321000
.step r=322000
.step r=323000
.step r=324000
.step r=325000
.step r=326000
.step r=327000
.step r=328000
.step r=329000
.step r=330000
.step r=331000
.step r=332000
.step r=333000
.step r=334000
.step r=335000
.step r=336000
.step r=337000
.step r=338000
.step r=339000
.step r=340000
.step r=341000
.step r=342000
.step r=343000
.step r=344000
.step r=345000
.step r=346000
.step r=347000
.step r=348000
.step r=349000
.step r=350000
.step r=351000
.step r=352000
.step r=353000
.step r=354000
.step r=355000
.step r=356000
.step r=357000
.step r=358000
.step r=359000
.step r=360000
.step r=361000
.step r=362000
.step r=363000
.step r=364000
.step r=365000
.step r=366000
.step r=367000
.step r=368000
.step r=369000
.step r=370000
.step r=371000
.step r=372000
.step r=373000
.step r=374000
.step r=375000
.step r=376000
.step r=377000
.step r=378000
.step r=379000
.step r=380000
.step r=381000
.step r=382000
.step r=383000
.step r=384000
.step r=385000
.step r=386000
.step r=387000
.step r=388000
.step r=389000
.step r=390000
.step r=391000
.step r=392000
.step r=393000
.step r=394000
.step r=395000
.step r=396000
.step r=397000
.step r=398000
.step r=399000
.step r=400000
.step r=401000
.step r=402000
.step r=403000
.step r=404000
.step r=405000
.step r=406000
.step r=407000
.step r=408000
.step r=409000
.step r=410000
.step r=411000
.step r=412000
.step r=413000
.step r=414000
.step r=415000
.step r=416000
.step r=417000
.step r=418000
.step r=419000
.step r=420000
.step r=421000
.step r=422000
.step r=423000
.step r=424000
.step r=425000
.step r=426000
.step r=427000
.step r=428000
.step r=429000
.step r=430000
.step r=431000
.step r=432000
.step r=433000
.step r=434000
.step r=435000
.step r=436000
.step r=437000
.step r=438000
.step r=439000
.step r=440000
.step r=441000
.step r=442000
.step r=443000
.step r=444000
.step r=445000
.step r=446000
.step r=447000
.step r=448000
.step r=449000
.step r=450000
.step r=451000
.step r=452000
.step r=453000
.step r=454000
.step r=455000
.step r=456000
.step r=457000
.step r=458000
.step r=459000
.step r=460000
.step r=461000
.step r=462000
.step r=463000
.step r=464000
.step r=465000
.step r=466000
.step r=467000
.step r=468000
.step r=469000
.step r=470000
.step r=471000
.step r=472000
.step r=473000
.step r=474000
.step r=475000
.step r=476000
.step r=477000
.step r=478000
.step r=479000
.step r=480000
.step r=481000
.step r=482000
.step r=483000
.step r=484000
.step r=485000
.step r=486000
.step r=487000
.step r=488000
.step r=489000
.step r=490000
.step r=491000
.step r=492000
.step r=493000
.step r=494000
.step r=495000
.step r=496000
.step r=497000
.step r=498000
.step r=499000
.step r=500000
.step r=501000
.step r=502000
.step r=503000
.step r=504000
.step r=505000
.step r=506000
.step r=507000
.step r=508000
.step r=509000
.step r=510000
.step r=511000
.step r=512000
.step r=513000
.step r=514000
.step r=515000
.step r=516000
.step r=517000
.step r=518000
.step r=519000
.step r=520000
.step r=521000
.step r=522000
.step r=523000
.step r=524000
.step r=525000
.step r=526000
.step r=527000
.step r=528000
.step r=529000
.step r=530000
.step r=531000
.step r=532000
.step r=533000
.step r=534000
.step r=535000
.step r=536000
.step r=537000
.step r=538000
.step r=539000
.step r=540000
.step r=541000
.step r=542000
.step r=543000
.step r=544000
.step r=545000
.step r=546000
.step r=547000
.step r=548000
.step r=549000
.step r=550000
.step r=551000
.step r=552000
.step r=553000
.step r=554000
.step r=555000
.step r=556000
.step r=557000
.step r=558000
.step r=559000
.step r=560000
.step r=561000
.step r=562000
.step r=563000
.step r=564000
.step r=565000
.step r=566000
.step r=567000
.step r=568000
.step r=569000
.step r=570000
.step r=571000
.step r=572000
.step r=573000
.step r=574000
.step r=575000
.step r=576000
.step r=577000
.step r=578000
.step r=579000
.step r=580000
.step r=581000
.step r=582000
.step r=583000
.step r=584000
.step r=585000
.step r=586000
.step r=587000
.step r=588000
.step r=589000
.step r=590000
.step r=591000
.step r=592000
.step r=593000
.step r=594000
.step r=595000
.step r=596000
.step r=597000
.step r=598000
.step r=599000
.step r=600000
.step r=601000
.step r=602000
.step r=603000
.step r=604000
.step r=605000
.step r=606000
.step r=607000
.step r=608000
.step r=609000
.step r=610000
.step r=611000
.step r=612000
.step r=613000
.step r=614000
.step r=615000
.step r=616000
.step r=617000
.step r=618000
.step r=619000
.step r=620000
.step r=621000
.step r=622000
.step r=623000
.step r=624000
.step r=625000
.step r=626000
.step r=627000
.step r=628000
.step r=629000
.step r=630000
.step r=631000
.step r=632000
.step r=633000
.step r=634000
.step r=635000
.step r=636000
.step r=637000
.step r=638000
.step r=639000
.step r=640000
.step r=641000
.step r=642000
.step r=643000
.step r=644000
.step r=645000
.step r=646000
.step r=647000
.step r=648000
.step r=649000
.step r=650000
.step r=651000
.step r=652000
.step r=653000
.step r=654000
.step r=655000
.step r=656000
.step r=657000
.step r=658000
.step r=659000
.step r=660000
.step r=661000
.step r=662000
.step r=663000
.step r=664000
.step r=665000
.step r=666000
.step r=667000
.step r=668000
.step r=669000
.step r=670000
.step r=671000
.step r=672000
.step r=673000
.step r=674000
.step r=675000
.step r=676000
.step r=677000
.step r=678000
.step r=679000
.step r=680000
.step r=681000
.step r=682000
.step r=683000
.step r=684000
.step r=685000
.step r=686000
.step r=687000
.step r=688000
.step r=689000
.step r=690000
.step r=691000
.step r=692000
.step r=693000
.step r=694000
.step r=695000
.step r=696000
.step r=697000
.step r=698000
.step r=699000
.step r=700000
.step r=701000
.step r=702000
.step r=703000
.step r=704000
.step r=705000
.step r=706000
.step r=707000
.step r=708000
.step r=709000
.step r=710000
.step r=711000
.step r=712000
.step r=713000
.step r=714000
.step r=715000
.step r=716000
.step r=717000
.step r=718000
.step r=719000
.step r=720000
.step r=721000
.step r=722000
.step r=723000
.step r=724000
.step r=725000
.step r=726000
.step r=727000
.step r=728000
.step r=729000
.step r=730000
.step r=731000
.step r=732000
.step r=733000
.step r=734000
.step r=735000
.step r=736000
.step r=737000
.step r=738000
.step r=739000
.step r=740000
.step r=741000
.step r=742000
.step r=743000
.step r=744000
.step r=745000
.step r=746000
.step r=747000
.step r=748000
.step r=749000
.step r=750000
.step r=751000
.step r=752000
.step r=753000
.step r=754000
.step r=755000
.step r=756000
.step r=757000
.step r=758000
.step r=759000
.step r=760000
.step r=761000
.step r=762000
.step r=763000
.step r=764000
.step r=765000
.step r=766000
.step r=767000
.step r=768000
.step r=769000
.step r=770000
.step r=771000
.step r=772000
.step r=773000
.step r=774000
.step r=775000
.step r=776000
.step r=777000
.step r=778000
.step r=779000
.step r=780000
.step r=781000
.step r=782000
.step r=783000
.step r=784000
.step r=785000
.step r=786000
.step r=787000
.step r=788000
.step r=789000
.step r=790000
.step r=791000
.step r=792000
.step r=793000
.step r=794000
.step r=795000
.step r=796000
.step r=797000
.step r=798000
.step r=799000
.step r=800000
.step r=801000
.step r=802000
.step r=803000
.step r=804000
.step r=805000
.step r=806000
.step r=807000
.step r=808000
.step r=809000
.step r=810000
.step r=811000
.step r=812000
.step r=813000
.step r=814000
.step r=815000
.step r=816000
.step r=817000
.step r=818000
.step r=819000
.step r=820000
.step r=821000
.step r=822000
.step r=823000
.step r=824000
.step r=825000
.step r=826000
.step r=827000
.step r=828000
.step r=829000
.step r=830000
.step r=831000
.step r=832000
.step r=833000
.step r=834000
.step r=835000
.step r=836000
.step r=837000
.step r=838000
.step r=839000
.step r=840000
.step r=841000
.step r=842000
.step r=843000
.step r=844000
.step r=845000
.step r=846000
.step r=847000
.step r=848000
.step r=849000
.step r=850000
.step r=851000
.step r=852000
.step r=853000
.step r=854000
.step r=855000
.step r=856000
.step r=857000
.step r=858000
.step r=859000
.step r=860000
.step r=861000
.step r=862000
.step r=863000
.step r=864000
.step r=865000
.step r=866000
.step r=867000
.step r=868000
.step r=869000
.step r=870000
.step r=871000
.step r=872000
.step r=873000
.step r=874000
.step r=875000
.step r=876000
.step r=877000
.step r=878000
.step r=879000
.step r=880000
.step r=881000
.step r=882000
.step r=883000
.step r=884000
.step r=885000
.step r=886000
.step r=887000
.step r=888000
.step r=889000
.step r=890000
.step r=891000
.step r=892000
.step r=893000
.step r=894000
.step r=895000
.step r=896000
.step r=897000
.step r=898000
.step r=899000
.step r=900000
.step r=901000
.step r=902000
.step r=903000
.step r=904000
.step r=905000
.step r=906000
.step r=907000
.step r=908000
.step r=909000
.step r=910000
.step r=911000
.step r=912000
.step r=913000
.step r=914000
.step r=915000
.step r=916000
.step r=917000
.step r=918000
.step r=919000
.step r=920000
.step r=921000
.step r=922000
.step r=923000
.step r=924000
.step r=925000
.step r=926000
.step r=927000
.step r=928000
.step r=929000
.step r=930000
.step r=931000
.step r=932000
.step r=933000
.step r=934000
.step r=935000
.step r=936000
.step r=937000
.step r=938000
.step r=939000
.step r=940000
.step r=941000
.step r=942000
.step r=943000
.step r=944000
.step r=945000
.step r=946000
.step r=947000
.step r=948000
.step r=949000
.step r=950000
.step r=951000
.step r=952000
.step r=953000
.step r=954000
.step r=955000
.step r=956000
.step r=957000
.step r=958000
.step r=959000
.step r=960000
.step r=961000
.step r=962000
.step r=963000
.step r=964000
.step r=965000
.step r=966000
.step r=967000
.step r=968000
.step r=969000
.step r=970000
.step r=971000
.step r=972000
.step r=973000
.step r=974000
.step r=975000
.step r=976000
.step r=977000
.step r=978000
.step r=979000
.step r=980000
.step r=981000
.step r=982000
.step r=983000
.step r=984000
.step r=985000
.step r=986000
.step r=987000
.step r=988000
.step r=989000
.step r=990000
.step r=991000
.step r=992000
.step r=993000
.step r=994000
.step r=995000
.step r=996000
.step r=997000
.step r=998000
.step r=999000
.step r=1e+006

Date: Mon Jan 30 17:58:03 2012
Total elapsed time: 184.799 seconds.

tnom = 27
temp = 27
method = trap
totiter = 487
traniter = 0
tranpoints = 0
accept = 0
rejected = 0
matrix size = 236
fillins = 420
solver = Normal
Matrix Compiler1:    1860 opcodes
Matrix Compiler2: 26.6 KB object code size  5.8/7.4/[2.6]


